10
Coordinates from ORCA-job acetone_MP2_aug-cc-pVTZ_OPT E -192.789920693560
  C       0.098670     -1.359367      0.708672
  C       0.100247     -0.258052     -0.330438
  C       1.326618     -0.162088     -1.213639
  O      -0.829391      0.506411     -0.448233
  H      -0.827492     -1.332764      1.277048
  H       0.207550     -2.334601      0.228331
  H       0.949010     -1.244282      1.385129
  H       1.474909     -1.096652     -1.759984
  H       2.220786     -0.007847     -0.605318
  H       1.215034      0.659333     -1.916708
10
Coordinates from ORCA-job acetone_MP2_aug-cc-pVTZ_OPT E -192.790116943447
  C       0.102047     -1.357874      0.705077
  C       0.100665     -0.257684     -0.329986
  C       1.325241     -0.165270     -1.209695
  O      -0.835132      0.510698     -0.449265
  H      -0.822595     -1.332814      1.273898
  H       0.212138     -2.329094      0.220860
  H       0.952975     -1.239776      1.377266
  H       1.469503     -1.100695     -1.751967
  H       2.215638     -0.012233     -0.598445
  H       1.215459      0.654832     -1.912881
10
Coordinates from ORCA-job acetone_MP2_aug-cc-pVTZ_OPT E -192.790140784406
  C       0.103159     -1.357220      0.703542
  C       0.100542     -0.259496     -0.331210
  C       1.324482     -0.166486     -1.208178
  O      -0.836784      0.511933     -0.449560
  H      -0.820411     -1.332328      1.273920
  H       0.213514     -2.327079      0.217176
  H       0.956048     -1.235966      1.372363
  H       1.466679     -1.102719     -1.749124
  H       2.212229     -0.014637     -0.593114
  H       1.216481      0.654090     -1.910956
10
Coordinates from ORCA-job acetone_MP2_aug-cc-pVTZ_OPT E -192.790141129688
  C       0.103155     -1.357085      0.703693
  C       0.102249     -0.257660     -0.328973
  C       1.324539     -0.166315     -1.208063
  O      -0.837044      0.511441     -0.450024
  H      -0.820913     -1.333535      1.273217
  H       0.214448     -2.325656      0.214790
  H       0.955741     -1.236157      1.373030
  H       1.464850     -1.103988     -1.747178
  H       2.212650     -0.014065     -0.593568
  H       1.216264      0.653113     -1.912065
10
Coordinates from ORCA-job acetone_MP2_aug-cc-pVTZ_OPT E -192.790142663231
  C       0.102954     -1.357221      0.703800
  C       0.101401     -0.258959     -0.330320
  C       1.324570     -0.166231     -1.208300
  O      -0.836816      0.511408     -0.449895
  H      -0.820572     -1.333024      1.274116
  H       0.213814     -2.326260      0.215687
  H       0.956242     -1.235554      1.372188
  H       1.465413     -1.103429     -1.748141
  H       2.212067     -0.014504     -0.592709
  H       1.216867      0.653864     -1.911566
10
Coordinates from ORCA-job acetone_MP2_aug-cc-pVTZ_OPT E -192.790142658808
  C       0.102899     -1.357246      0.703875
  C       0.101304     -0.259029     -0.330422
  C       1.324607     -0.166171     -1.208353
  O      -0.836850      0.511284     -0.449993
  H      -0.820512     -1.333011      1.274331
  H       0.213734     -2.326245      0.215665
  H       0.956381     -1.235461      1.372003
  H       1.465350     -1.103400     -1.748173
  H       2.211979     -0.014612     -0.592532
  H       1.217048      0.653982     -1.911542
