10
Coordinates from ORCA-job acetone_B3LYP_cc-pVDZ_OPT E -193.041617509689
  C       0.105790     -1.354390      0.699340
  C       0.144890     -0.294920     -0.325100
  C       1.321750     -0.168840     -1.203440
  O      -0.820290      0.496500     -0.448650
  H      -0.823530     -1.322860      1.269290
  H       0.187940     -2.330850      0.219800
  H       0.942110     -1.228650      1.388500
  H       1.458330     -1.092260     -1.768110
  H       2.212490      0.009940     -0.599420
  H       1.206460      0.656420     -1.907350
10
Coordinates from ORCA-job acetone_B3LYP_cc-pVDZ_OPT E -193.045722787951
  C       0.096817     -1.359552      0.710107
  C       0.122854     -0.276364     -0.327507
  C       1.326843     -0.160236     -1.214855
  O      -0.823259      0.499136     -0.448674
  H      -0.839359     -1.326667      1.282034
  H       0.189398     -2.349395      0.229895
  H       0.946686     -1.242086      1.405264
  H       1.474587     -1.096447     -1.781271
  H       2.232576      0.011393     -0.607470
  H       1.208794      0.670308     -1.922664
10
Coordinates from ORCA-job acetone_B3LYP_cc-pVDZ_OPT E -193.046533272122
  C       0.094981     -1.361546      0.713194
  C       0.103782     -0.260939     -0.330014
  C       1.328915     -0.158353     -1.218104
  O      -0.829888      0.505132     -0.449076
  H      -0.842011     -1.329590      1.285804
  H       0.197903     -2.351805      0.233636
  H       0.951005     -1.249846      1.403472
  H       1.482860     -1.099002     -1.777507
  H       2.236921      0.003355     -0.609577
  H       1.211470      0.672683     -1.926967
10
Coordinates from ORCA-job acetone_B3LYP_cc-pVDZ_OPT E -193.046573093870
  C       0.096149     -1.361473      0.712422
  C       0.099751     -0.256981     -0.330118
  C       1.328958     -0.159362     -1.217199
  O      -0.834709      0.509311     -0.449567
  H      -0.840500     -1.331135      1.285453
  H       0.202331     -2.349486      0.231012
  H       0.953509     -1.249721      1.399517
  H       1.482274     -1.101453     -1.772544
  H       2.235422     -0.000586     -0.607231
  H       1.212754      0.670977     -1.926885
10
Coordinates from ORCA-job acetone_B3LYP_cc-pVDZ_OPT E -193.046579215492
  C       0.096871     -1.361171      0.711582
  C       0.097822     -0.256106     -0.330807
  C       1.328615     -0.160099     -1.216419
  O      -0.836411      0.511107     -0.449555
  H      -0.839234     -1.331711      1.285388
  H       0.204645     -2.347793      0.228678
  H       0.955555     -1.248071      1.396083
  H       1.481033     -1.103123     -1.769529
  H       2.233374     -0.003046     -0.604226
  H       1.213669      0.670103     -1.926334
10
Coordinates from ORCA-job acetone_B3LYP_cc-pVDZ_OPT E -193.046580174936
  C       0.097099     -1.360958      0.711286
  C       0.097897     -0.255100     -0.330136
  C       1.328433     -0.160293     -1.216091
  O      -0.836780      0.511478     -0.449572
  H      -0.839020     -1.332516      1.285027
  H       0.205871     -2.346600      0.226724
  H       0.956124     -1.247328      1.395138
  H       1.479726     -1.104338     -1.767653
  H       2.232693     -0.003589     -0.603198
  H       1.213898      0.669335     -1.926665
