10
Coordinates from ORCA-job acetone_B3LYP_cc-pVTZ_OPT E -193.114894275587
  C       0.097099     -1.360958      0.711286
  C       0.097897     -0.255100     -0.330136
  C       1.328433     -0.160293     -1.216091
  O      -0.836780      0.511478     -0.449572
  H      -0.839020     -1.332516      1.285027
  H       0.205871     -2.346600      0.226724
  H       0.956124     -1.247328      1.395138
  H       1.479726     -1.104338     -1.767653
  H       2.232693     -0.003589     -0.603198
  H       1.213898      0.669335     -1.926665
10
Coordinates from ORCA-job acetone_B3LYP_cc-pVTZ_OPT E -193.115412838028
  C       0.098496     -1.359683      0.709015
  C       0.099819     -0.258278     -0.330877
  C       1.326979     -0.161816     -1.213945
  O      -0.830384      0.506810     -0.448525
  H      -0.827986     -1.331705      1.277870
  H       0.206242     -2.336051      0.229478
  H       0.949597     -1.245858      1.385676
  H       1.476750     -1.096447     -1.760852
  H       2.221870     -0.007021     -0.605845
  H       1.214556      0.660140     -1.917135
10
Coordinates from ORCA-job acetone_B3LYP_cc-pVTZ_OPT E -193.115413750962
  C       0.098684     -1.359368      0.708862
  C       0.101279     -0.256554     -0.328855
  C       1.326796     -0.161898     -1.213611
  O      -0.829811      0.506168     -0.448617
  H      -0.828076     -1.333015      1.276471
  H       0.207583     -2.334297      0.227652
  H       0.948545     -1.245711      1.386296
  H       1.474839     -1.097132     -1.759098
  H       2.221851     -0.006862     -0.606662
  H       1.214250      0.658759     -1.917578
10
Coordinates from ORCA-job acetone_B3LYP_cc-pVTZ_OPT E -193.115414946953
  C       0.098670     -1.359367      0.708672
  C       0.100247     -0.258052     -0.330438
  C       1.326618     -0.162088     -1.213639
  O      -0.829391      0.506411     -0.448233
  H      -0.827492     -1.332764      1.277048
  H       0.207550     -2.334601      0.228331
  H       0.949010     -1.244282      1.385129
  H       1.474909     -1.096652     -1.759984
  H       2.220786     -0.007847     -0.605318
  H       1.215034      0.659333     -1.916708
