4
Coordinates from ORCA-job ammonia_MP2_aug-cc-pVTZ_OPT E -56.460531099268
  N      -0.010960     -0.015604      0.027095
  H      -0.325201     -0.459510     -0.828847
  H      -0.325075      0.947440     -0.016477
  H       1.001905      0.009453     -0.016241
4
Coordinates from ORCA-job ammonia_MP2_aug-cc-pVTZ_OPT E -56.460538729542
  N      -0.010599     -0.015088      0.026120
  H      -0.324642     -0.458973     -0.827820
  H      -0.324644      0.946410     -0.016430
  H       1.000555      0.009431     -0.016341
4
Coordinates from ORCA-job ammonia_MP2_aug-cc-pVTZ_OPT E -56.460540123194
  N      -0.010291     -0.014592      0.025270
  H      -0.324890     -0.459424     -0.827755
  H      -0.324906      0.946586     -0.016007
  H       1.000757      0.009210     -0.015978
4
Coordinates from ORCA-job ammonia_MP2_aug-cc-pVTZ_OPT E -56.460540919586
  N      -0.009860     -0.013916      0.024115
  H      -0.325341     -0.460144     -0.827777
  H      -0.325352      0.946953     -0.015394
  H       1.001224      0.008886     -0.015414
4
Coordinates from ORCA-job ammonia_MP2_aug-cc-pVTZ_OPT E -56.460540906950
  N      -0.009848     -0.013912      0.024102
  H      -0.325362     -0.460152     -0.827784
  H      -0.325366      0.946961     -0.015391
  H       1.001246      0.008883     -0.015398
