4
Coordinates from ORCA-job ammonia_B3LYP_cc-pVTZ_OPT E -56.547787817453
  N      -0.020074     -0.028491      0.049486
  H      -0.320431     -0.452694     -0.834157
  H      -0.320465      0.948715     -0.025037
  H       1.001640      0.014249     -0.024763
4
Coordinates from ORCA-job ammonia_B3LYP_cc-pVTZ_OPT E -56.548068553110
  N      -0.016931     -0.024053      0.041827
  H      -0.319663     -0.451636     -0.829405
  H      -0.319674      0.944042     -0.023575
  H       0.996938      0.013428     -0.023317
4
Coordinates from ORCA-job ammonia_B3LYP_cc-pVTZ_OPT E -56.548170218387
  N      -0.013325     -0.018966      0.033047
  H      -0.322310     -0.455396     -0.828270
  H      -0.322327      0.944927     -0.019749
  H       0.998631      0.011215     -0.019499
4
Coordinates from ORCA-job ammonia_B3LYP_cc-pVTZ_OPT E -56.548194446861
  N      -0.011163     -0.015900      0.027698
  H      -0.324773     -0.458892     -0.828620
  H      -0.324746      0.946963     -0.016896
  H       1.001352      0.009609     -0.016652
4
Coordinates from ORCA-job ammonia_B3LYP_cc-pVTZ_OPT E -56.548194950829
  N      -0.010949     -0.015591      0.027102
  H      -0.325180     -0.459477     -0.828824
  H      -0.325085      0.947412     -0.016493
  H       1.001884      0.009435     -0.016255
4
Coordinates from ORCA-job ammonia_B3LYP_cc-pVTZ_OPT E -56.548194956566
  N      -0.010960     -0.015604      0.027095
  H      -0.325201     -0.459510     -0.828847
  H      -0.325075      0.947440     -0.016477
  H       1.001905      0.009453     -0.016241
