9
Coordinates from ORCA-job furan_B3LYP_cc-pVDZ_OPT E -229.883140154832
  C      -0.426390      1.278320     -0.000000
  O      -0.006840     -0.010220      0.000000
  C       1.347460      0.002300      0.000000
  C       0.673300      2.127370     -0.000000
  C       1.797460      1.317540     -0.000000
  H      -1.404320      1.577270      0.000000
  H       1.945110     -0.828660      0.000000
  H       0.655530      3.149380     -0.000000
  H       2.769790      1.625240      0.000000
9
Coordinates from ORCA-job furan_B3LYP_cc-pVDZ_OPT E -229.900432194110
  C      -0.422607      1.286087      0.000000
  O      -0.001733     -0.001841      0.000000
  C       1.353366      0.009993      0.000000
  C       0.662136      2.135481     -0.000000
  C       1.810672      1.309790      0.000000
  H      -1.470147      1.552447     -0.000000
  H       1.941602     -0.896809     -0.000000
  H       0.632320      3.217415     -0.000000
  H       2.845492      1.625977      0.000000
9
Coordinates from ORCA-job furan_B3LYP_cc-pVDZ_OPT E -229.902704716755
  C      -0.413946      1.295504      0.000000
  O       0.002365      0.004081     -0.000000
  C       1.359482      0.021632      0.000000
  C       0.659941      2.145069      0.000000
  C       1.821360      1.310907     -0.000000
  H      -1.479780      1.518890     -0.000000
  H       1.912324     -0.916419      0.000000
  H       0.622727      3.235554      0.000000
  H       2.866627      1.623322     -0.000000
9
Coordinates from ORCA-job furan_B3LYP_cc-pVDZ_OPT E -229.903707444778
  C      -0.405833      1.307020     -0.000000
  O       0.006635      0.009850      0.000000
  C       1.367820      0.033057     -0.000000
  C       0.660442      2.155902     -0.000000
  C       1.831987      1.314895      0.000000
  H      -1.482626      1.478817      0.000000
  H       1.874712     -0.932031     -0.000000
  H       0.618457      3.247375     -0.000000
  H       2.879507      1.623655      0.000000
9
Coordinates from ORCA-job furan_B3LYP_cc-pVDZ_OPT E -229.903838594836
  C      -0.405320      1.310602      0.000000
  O       0.007899      0.011464     -0.000000
  C       1.371082      0.034594      0.000000
  C       0.662024      2.158305      0.000000
  C       1.833693      1.317104     -0.000000
  H      -1.481868      1.467913     -0.000000
  H       1.864096     -0.934926      0.000000
  H       0.621577      3.246971      0.000000
  H       2.877916      1.626514     -0.000000
9
Coordinates from ORCA-job furan_B3LYP_cc-pVDZ_OPT E -229.903873247800
  C      -0.406013      1.312005      0.000000
  O       0.008504      0.012253      0.000000
  C       1.372656      0.034314     -0.000000
  C       0.663528      2.158321     -0.000000
  C       1.833107      1.318476      0.000000
  H      -1.481440      1.463935      0.000000
  H       1.860253     -0.935869     -0.000000
  H       0.625999      3.245076     -0.000000
  H       2.874505      1.630028      0.000000
9
Coordinates from ORCA-job furan_B3LYP_cc-pVDZ_OPT E -229.903876814834
  C      -0.406371      1.312002     -0.000000
  O       0.008608      0.012417     -0.000000
  C       1.372774      0.033965      0.000000
  C       0.664004      2.157779      0.000000
  C       1.832408      1.318741     -0.000000
  H      -1.481702      1.463563     -0.000000
  H       1.860020     -0.936233      0.000000
  H       0.628051      3.244538      0.000000
  H       2.873308      1.631766     -0.000000
9
Coordinates from ORCA-job furan_B3LYP_cc-pVDZ_OPT E -229.903877412428
  C      -0.406547      1.311879      0.000000
  O       0.008649      0.012499      0.000000
  C       1.372716      0.033762     -0.000000
  C       0.664162      2.157427     -0.000000
  C       1.832017      1.318779      0.000000
  H      -1.482062      1.463383      0.000000
  H       1.859982     -0.936615     -0.000000
  H       0.629327      3.244484     -0.000000
  H       2.872856      1.632942      0.000000
