9
Coordinates from ORCA-job furan_B3LYP_cc-pVTZ_OPT E -229.975036247782
  C      -0.406547      1.311879      0.000000
  O       0.008649      0.012499      0.000000
  C       1.372716      0.033762     -0.000000
  C       0.664162      2.157427     -0.000000
  C       1.832017      1.318779      0.000000
  H      -1.482062      1.463383      0.000000
  H       1.859982     -0.936615     -0.000000
  H       0.629327      3.244484     -0.000000
  H       2.872856      1.632942      0.000000
9
Coordinates from ORCA-job furan_B3LYP_cc-pVTZ_OPT E -229.975576832425
  C      -0.402774      1.313676     -0.000000
  O       0.011756      0.016768     -0.000000
  C       1.373180      0.037915      0.000000
  C       0.663577      2.152383      0.000000
  C       1.827420      1.316628     -0.000000
  H      -1.467156      1.465883     -0.000000
  H       1.857569     -0.921732      0.000000
  H       0.630033      3.228486      0.000000
  H       2.857495      1.628533     -0.000000
9
Coordinates from ORCA-job furan_B3LYP_cc-pVTZ_OPT E -229.975584932463
  C      -0.402260      1.313944      0.000000
  O       0.012036      0.017120      0.000000
  C       1.373248      0.038501     -0.000000
  C       0.663180      2.151045     -0.000000
  C       1.826287      1.315825      0.000000
  H      -1.466333      1.467280      0.000000
  H       1.858620     -0.920487     -0.000000
  H       0.630218      3.227062     -0.000000
  H       2.856105      1.628251      0.000000
9
Coordinates from ORCA-job furan_B3LYP_cc-pVTZ_OPT E -229.975585377529
  C      -0.402260      1.313927     -0.000000
  O       0.011870      0.016872     -0.000000
  C       1.373217      0.038504      0.000000
  C       0.663016      2.150759      0.000000
  C       1.826076      1.315577     -0.000000
  H      -1.466347      1.467896     -0.000000
  H       1.859208     -0.920292      0.000000
  H       0.630397      3.226923      0.000000
  H       2.855922      1.628373     -0.000000
