9
Coordinates from ORCA-job furan_MP2_aug-cc-pVTZ_OPT E -229.592547896961
  C      -0.402260      1.313927     -0.000000
  O       0.011870      0.016872     -0.000000
  C       1.373217      0.038504      0.000000
  C       0.663016      2.150759      0.000000
  C       1.826076      1.315577     -0.000000
  H      -1.466347      1.467896     -0.000000
  H       1.859208     -0.920292      0.000000
  H       0.630397      3.226923      0.000000
  H       2.855922      1.628373     -0.000000
9
Coordinates from ORCA-job furan_MP2_aug-cc-pVTZ_OPT E -229.592714450821
  C      -0.402775      1.311308      0.000000
  O       0.009812      0.014051      0.000000
  C       1.370868      0.037381     -0.000000
  C       0.666873      2.153629     -0.000000
  C       1.827479      1.320142      0.000000
  H      -1.466907      1.463713      0.000000
  H       1.855442     -0.922199     -0.000000
  H       0.632793      3.229125     -0.000000
  H       2.857515      1.631390      0.000000
9
Coordinates from ORCA-job furan_MP2_aug-cc-pVTZ_OPT E -229.592739499764
  C      -0.403452      1.310628     -0.000000
  O       0.010117      0.014431     -0.000000
  C       1.370482      0.036587      0.000000
  C       0.668800      2.154624      0.000000
  C       1.827778      1.322260     -0.000000
  H      -1.467830      1.461897     -0.000000
  H       1.853991     -0.923639      0.000000
  H       0.632938      3.229983      0.000000
  H       2.858275      1.631769     -0.000000
9
Coordinates from ORCA-job furan_MP2_aug-cc-pVTZ_OPT E -229.592742756969
  C      -0.403623      1.310704      0.000000
  O       0.010689      0.015204      0.000000
  C       1.370639      0.036456     -0.000000
  C       0.669368      2.154673     -0.000000
  C       1.827639      1.322811      0.000000
  H      -1.468022      1.461533      0.000000
  H       1.853678     -0.923951     -0.000000
  H       0.632173      3.230042     -0.000000
  H       2.858559      1.631069      0.000000
9
Coordinates from ORCA-job furan_MP2_aug-cc-pVTZ_OPT E -229.592743900957
  C      -0.403573      1.310882     -0.000000
  O       0.011033      0.015672     -0.000000
  C       1.370812      0.036554      0.000000
  C       0.669567      2.154621      0.000000
  C       1.827529      1.322987     -0.000000
  H      -1.467964      1.461561     -0.000000
  H       1.853660     -0.923910      0.000000
  H       0.631230      3.229993      0.000001
  H       2.858805      1.630180     -0.000001
