7
Coordinates from ORCA-job acetaldehyde_B3LYP_cc-pVTZ_OPT E -153.804648154072
  C       1.445420     -0.022014     -0.257834
  C      -0.046716      0.038095     -0.055318
  O      -0.740282      0.993477     -0.313996
  H       1.818938      0.923483     -0.676048
  H       1.942698     -0.233237      0.705444
  H       1.695025     -0.861491     -0.931011
  H      -0.497832     -0.899934      0.369483
7
Coordinates from ORCA-job acetaldehyde_B3LYP_cc-pVTZ_OPT E -153.805031401026
  C       1.444321     -0.022202     -0.257602
  C      -0.043282      0.035657     -0.055126
  O      -0.734829      0.986865     -0.312287
  H       1.814404      0.913735     -0.671642
  H       1.936638     -0.231245      0.696629
  H       1.691488     -0.853407     -0.924631
  H      -0.491489     -0.891022      0.365379
7
Coordinates from ORCA-job acetaldehyde_B3LYP_cc-pVTZ_OPT E -153.805034098945
  C       1.444385     -0.022042     -0.257536
  C      -0.042652      0.035338     -0.054397
  O      -0.734434      0.985736     -0.312322
  H       1.814531      0.913334     -0.671556
  H       1.936583     -0.230920      0.696264
  H       1.690975     -0.852836     -0.924555
  H      -0.492137     -0.890230      0.364822
7
Coordinates from ORCA-job acetaldehyde_B3LYP_cc-pVTZ_OPT E -153.805032680167
  C       1.444462     -0.022056     -0.257917
  C      -0.042459      0.034068     -0.056279
  O      -0.734066      0.985317     -0.311155
  H       1.814811      0.913256     -0.671398
  H       1.935567     -0.230697      0.696319
  H       1.691873     -0.852405     -0.924920
  H      -0.492938     -0.889103      0.366069
7
Coordinates from ORCA-job acetaldehyde_B3LYP_cc-pVTZ_OPT E -153.805034715128
  C       1.444548     -0.021972     -0.257652
  C      -0.042265      0.034706     -0.054726
  O      -0.734330      0.985202     -0.311988
  H       1.814838      0.913373     -0.671560
  H       1.936479     -0.230713      0.696339
  H       1.691282     -0.852554     -0.924923
  H      -0.493302     -0.889663      0.365231
7
Coordinates from ORCA-job acetaldehyde_B3LYP_cc-pVTZ_OPT E -153.805034742203
  C       1.444562     -0.022002     -0.257638
  C      -0.042254      0.034698     -0.054725
  O      -0.734361      0.985246     -0.312046
  H       1.814777      0.913421     -0.671544
  H       1.936574     -0.230753      0.696353
  H       1.691365     -0.852562     -0.924978
  H      -0.493414     -0.889667      0.365298
