7
Coordinates from ORCA-job acetaldehyde_MP2_aug-cc-pVTZ_OPT E -153.554104472155
  C       1.444562     -0.022002     -0.257638
  C      -0.042254      0.034698     -0.054725
  O      -0.734361      0.985246     -0.312046
  H       1.814777      0.913421     -0.671544
  H       1.936574     -0.230753      0.696353
  H       1.691365     -0.852562     -0.924978
  H      -0.493414     -0.889667      0.365298
7
Coordinates from ORCA-job acetaldehyde_MP2_aug-cc-pVTZ_OPT E -153.554303035652
  C       1.445235     -0.022917     -0.257396
  C      -0.039533      0.031827     -0.054007
  O      -0.735976      0.988933     -0.313333
  H       1.812951      0.911890     -0.670759
  H       1.934360     -0.230651      0.695620
  H       1.689522     -0.851422     -0.924092
  H      -0.489309     -0.889281      0.364686
7
Coordinates from ORCA-job acetaldehyde_MP2_aug-cc-pVTZ_OPT E -153.554327976058
  C       1.445672     -0.023118     -0.257397
  C      -0.037499      0.029580     -0.053556
  O      -0.735012      0.989819     -0.313907
  H       1.811387      0.912270     -0.670648
  H       1.933294     -0.230296      0.696303
  H       1.688537     -0.851243     -0.924777
  H      -0.489129     -0.888632      0.364702
7
Coordinates from ORCA-job acetaldehyde_MP2_aug-cc-pVTZ_OPT E -153.554330281739
  C       1.446001     -0.023100     -0.257377
  C      -0.036807      0.028952     -0.053004
  O      -0.734185      0.989500     -0.314231
  H       1.810670      0.912640     -0.670662
  H       1.933566     -0.230128      0.696461
  H       1.688462     -0.851118     -0.925164
  H      -0.490457     -0.888366      0.364698
7
Coordinates from ORCA-job acetaldehyde_MP2_aug-cc-pVTZ_OPT E -153.554330045055
  C       1.446374     -0.023274     -0.257650
  C      -0.036461      0.027637     -0.054279
  O      -0.733084      0.989336     -0.313675
  H       1.809721      0.913133     -0.670506
  H       1.933301     -0.230055      0.696640
  H       1.689594     -0.850912     -0.925734
  H      -0.492196     -0.887485      0.365924
7
Coordinates from ORCA-job acetaldehyde_MP2_aug-cc-pVTZ_OPT E -153.554330951694
  C       1.446461     -0.023258     -0.257387
  C      -0.036315      0.028216     -0.052843
  O      -0.733133      0.988959     -0.314435
  H       1.809508      0.913145     -0.670530
  H       1.934230     -0.230113      0.696431
  H       1.689184     -0.850886     -0.925647
  H      -0.492685     -0.887683      0.365130
