3
Coordinates from ORCA-job water_b3lyp_cc-pVTZ E -76.422563185733
  O      -0.015093     -0.021299      0.000000
  H      -0.283701      0.909539      0.000000
  H       0.952134      0.035710      0.000000
3
Coordinates from ORCA-job water_b3lyp_cc-pVTZ E -76.422688336433
  O      -0.011582     -0.016394      0.000000
  H      -0.284620      0.906511      0.000000
  H       0.949542      0.033833      0.000000
3
Coordinates from ORCA-job water_b3lyp_cc-pVTZ E -76.422711683293
  O      -0.009376     -0.013283      0.000000
  H      -0.288118      0.906652      0.000000
  H       0.950835      0.030581      0.000000
3
Coordinates from ORCA-job water_b3lyp_cc-pVTZ E -76.422713994156
  O      -0.008721     -0.012348      0.000000
  H      -0.289785      0.907130      0.000000
  H       0.951846      0.029169      0.000000
3
Coordinates from ORCA-job water_b3lyp_cc-pVTZ E -76.422714009007
  O      -0.008713     -0.012335      0.000000
  H      -0.289892      0.907195      0.000000
  H       0.951944      0.029090      0.000000
