3
Coordinates from ORCA-job water_b3lyp_cc-pVDZ E -76.383136587890
  O      -0.013140     -0.018590      0.000000
  H      -0.299430      0.918630      0.000000
  H       0.965910      0.023910      0.000000
3
Coordinates from ORCA-job water_b3lyp_cc-pVDZ E -76.383466171544
  O      -0.013244     -0.018675      0.000000
  H      -0.286429      0.909500      0.000000
  H       0.953013      0.033126      0.000000
3
Coordinates from ORCA-job water_b3lyp_cc-pVDZ E -76.383474554644
  O      -0.014209     -0.020049      0.000000
  H      -0.285097      0.909588      0.000000
  H       0.952646      0.034411      0.000000
3
Coordinates from ORCA-job water_b3lyp_cc-pVDZ E -76.383477077980
  O      -0.015099     -0.021307      0.000000
  H      -0.283683      0.909531      0.000000
  H       0.952121      0.035725      0.000000
3
Coordinates from ORCA-job water_b3lyp_cc-pVDZ E -76.383477072208
  O      -0.015093     -0.021299      0.000000
  H      -0.283701      0.909539      0.000000
  H       0.952134      0.035710      0.000000
