2
Coordinates from ORCA-job nitrogen_monoxide_B3LYP_cc-pVTZ_OPT E -129.884309149650
  N     -27.890421     12.166670      0.000000
  O     -26.736239     12.166670      0.000000
2
Coordinates from ORCA-job nitrogen_monoxide_B3LYP_cc-pVTZ_OPT E -129.884429322325
  N     -27.886857     12.166670      0.000000
  O     -26.739803     12.166670      0.000000
2
Coordinates from ORCA-job nitrogen_monoxide_B3LYP_cc-pVTZ_OPT E -129.884430573653
  N     -27.886448     12.166670      0.000000
  O     -26.740212     12.166670      0.000000
2
Coordinates from ORCA-job nitrogen_monoxide_B3LYP_cc-pVTZ_OPT E -129.884430574207
  N     -27.886460     12.166670      0.000000
  O     -26.740200     12.166670      0.000000
