2
Coordinates from ORCA-job nitrogen_monoxide_MP2_aug-cc-pVTZ_OPT E -129.701929839882
  N     -27.886460     12.166670      0.000000
  O     -26.740200     12.166670      0.000000
2
Coordinates from ORCA-job nitrogen_monoxide_MP2_aug-cc-pVTZ_OPT E -129.700509176563
  N     -27.871057     12.166670      0.000000
  O     -26.755603     12.166670      0.000000
2
Coordinates from ORCA-job nitrogen_monoxide_MP2_aug-cc-pVTZ_OPT E -129.702378375270
  N     -27.879533     12.166670      0.000000
  O     -26.747127     12.166670      0.000000
2
Coordinates from ORCA-job nitrogen_monoxide_MP2_aug-cc-pVTZ_OPT E -129.702490085792
  N     -27.882900     12.166670      0.000000
  O     -26.743760     12.166670      0.000000
2
Coordinates from ORCA-job nitrogen_monoxide_MP2_aug-cc-pVTZ_OPT E -129.702492309084
  N     -27.881796     12.166670      0.000000
  O     -26.744864     12.166670      0.000000
2
Coordinates from ORCA-job nitrogen_monoxide_MP2_aug-cc-pVTZ_OPT E -129.702494579904
  N     -27.881892     12.166670      0.000000
  O     -26.744768     12.166670      0.000000
2
Coordinates from ORCA-job nitrogen_monoxide_MP2_aug-cc-pVTZ_OPT E -129.702493397787
  N     -27.881903     12.166670      0.000000
  O     -26.744757     12.166670      0.000000
