2
Coordinates from ORCA-job nitrogen_monoxide_B3LYP_cc-pVDZ_OPT E -129.722865199528
  N     -28.083330     12.166670      0.000000
  O     -26.543330     12.166670      0.000000
2
Coordinates from ORCA-job nitrogen_monoxide_B3LYP_cc-pVDZ_OPT E -129.783333978389
  N     -28.003953     12.166670      0.000000
  O     -26.622707     12.166670      0.000000
2
Coordinates from ORCA-job nitrogen_monoxide_B3LYP_cc-pVDZ_OPT E -129.836881379004
  N     -27.924577     12.166670      0.000000
  O     -26.702083     12.166670      0.000000
2
Coordinates from ORCA-job nitrogen_monoxide_B3LYP_cc-pVDZ_OPT E -129.824328940931
  N     -27.845256     12.166670      0.000000
  O     -26.781404     12.166670      0.000000
2
Coordinates from ORCA-job nitrogen_monoxide_B3LYP_cc-pVDZ_OPT E -129.844295876180
  N     -27.898750     12.166670      0.000000
  O     -26.727910     12.166670      0.000000
2
Coordinates from ORCA-job nitrogen_monoxide_B3LYP_cc-pVDZ_OPT E -129.844783220278
  N     -27.892853     12.166670      0.000000
  O     -26.733807     12.166670      0.000000
2
Coordinates from ORCA-job nitrogen_monoxide_B3LYP_cc-pVDZ_OPT E -129.844829839303
  N     -27.890269     12.166670      0.000000
  O     -26.736391     12.166670      0.000000
2
Coordinates from ORCA-job nitrogen_monoxide_B3LYP_cc-pVDZ_OPT E -129.844830026468
  N     -27.890424     12.166670      0.000000
  O     -26.736236     12.166670      0.000000
2
Coordinates from ORCA-job nitrogen_monoxide_B3LYP_cc-pVDZ_OPT E -129.844831036107
  N     -27.890421     12.166670      0.000000
  O     -26.736239     12.166670      0.000000
