6
Coordinates from ORCA-job methanol_B3LYP_cc-pVTZ_OPT E -115.705546598490
  O       1.436105     -0.015170      0.000000
  C       0.020888      0.022159      0.000000
  H       1.751868      0.899572     -0.000000
  H      -0.330073     -1.021526     -0.000000
  H      -0.401063      0.519458      0.897499
  H      -0.401063      0.519458     -0.897499
6
Coordinates from ORCA-job methanol_B3LYP_cc-pVTZ_OPT E -115.705917609337
  O       1.432857     -0.010495      0.000000
  C       0.016450      0.021778      0.000000
  H       1.751743      0.896156     -0.000000
  H      -0.328689     -1.011808      0.000000
  H      -0.397850      0.514160      0.888480
  H      -0.397850      0.514160     -0.888480
6
Coordinates from ORCA-job methanol_B3LYP_cc-pVTZ_OPT E -115.705940128362
  O       1.431711     -0.008756      0.000000
  C       0.013661      0.021384      0.000000
  H       1.754318      0.896131     -0.000000
  H      -0.328688     -1.011950     -0.000000
  H      -0.397171      0.513571      0.888398
  H      -0.397171      0.513571     -0.888398
6
Coordinates from ORCA-job methanol_B3LYP_cc-pVTZ_OPT E -115.705946920236
  O       1.430779     -0.007985     -0.000000
  C       0.011610      0.021349      0.000000
  H       1.755796      0.896031      0.000000
  H      -0.328068     -1.012899     -0.000000
  H      -0.396728      0.513727      0.889407
  H      -0.396728      0.513727     -0.889407
6
Coordinates from ORCA-job methanol_B3LYP_cc-pVTZ_OPT E -115.705947717150
  O       1.430595     -0.008107      0.000000
  C       0.011217      0.021488      0.000000
  H       1.755743      0.895941     -0.000000
  H      -0.327644     -1.013165     -0.000000
  H      -0.396626      0.513897      0.889777
  H      -0.396626      0.513897     -0.889777
