6
Coordinates from ORCA-job methanol_MP2_aug-cc-pVTZ_OPT E -115.528944584482
  O       1.430595     -0.008107      0.000000
  C       0.011217      0.021488      0.000000
  H       1.755743      0.895941     -0.000000
  H      -0.327644     -1.013165     -0.000000
  H      -0.396626      0.513897      0.889777
  H      -0.396626      0.513897     -0.889777
6
Coordinates from ORCA-job methanol_MP2_aug-cc-pVTZ_OPT E -115.528992000627
  O       1.429031     -0.009208      0.000000
  C       0.009251      0.021482      0.000000
  H       1.751150      0.896161     -0.000000
  H      -0.326692     -1.011483     -0.000000
  H      -0.393040      0.513499      0.887846
  H      -0.393040      0.513499     -0.887846
6
Coordinates from ORCA-job methanol_MP2_aug-cc-pVTZ_OPT E -115.529004889242
  O       1.428833     -0.009968      0.000000
  C       0.007304      0.021376      0.000000
  H       1.748210      0.896472     -0.000000
  H      -0.326221     -1.011774     -0.000000
  H      -0.390733      0.513922      0.888229
  H      -0.390733      0.513922     -0.888229
6
Coordinates from ORCA-job methanol_MP2_aug-cc-pVTZ_OPT E -115.529007777209
  O       1.429185     -0.010317      0.000000
  C       0.006218      0.021301      0.000000
  H       1.747093      0.896689     -0.000000
  H      -0.326116     -1.012367     -0.000000
  H      -0.389860      0.514322      0.889061
  H      -0.389860      0.514322     -0.889061
6
Coordinates from ORCA-job methanol_MP2_aug-cc-pVTZ_OPT E -115.529007917933
  O       1.429370     -0.010339      0.000000
  C       0.006119      0.021303      0.000000
  H       1.747116      0.896729     -0.000000
  H      -0.326167     -1.012506     -0.000000
  H      -0.389889      0.514381      0.889287
  H      -0.389889      0.514381     -0.889287
