6
Coordinates from ORCA-job methanol_B3LYP_cc-pVDZ_OPT E -115.654828644819
  O       1.431080     -0.019420      0.000000
  C       0.010030      0.002620     -0.000000
  H       1.698050      0.924260     -0.000000
  H      -0.361780     -1.021070      0.000000
  H      -0.350360      0.518780      0.889880
  H      -0.350360      0.518780     -0.889880
6
Coordinates from ORCA-job methanol_B3LYP_cc-pVDZ_OPT E -115.656247744637
  O       1.440599     -0.016327     -0.000000
  C       0.014135      0.014057      0.000000
  H       1.726332      0.907856      0.000000
  H      -0.343503     -1.025615     -0.000000
  H      -0.380452      0.521990      0.901517
  H      -0.380452      0.521990     -0.901517
6
Coordinates from ORCA-job methanol_B3LYP_cc-pVDZ_OPT E -115.656464110254
  O       1.439691     -0.016582     -0.000000
  C       0.017219      0.020695     -0.000000
  H       1.742897      0.901417     -0.000000
  H      -0.332748     -1.023419      0.000000
  H      -0.395200      0.520920      0.901125
  H      -0.395200      0.520920     -0.901125
6
Coordinates from ORCA-job methanol_B3LYP_cc-pVDZ_OPT E -115.656509443143
  O       1.437102     -0.016210      0.000000
  C       0.019606      0.023251      0.000000
  H       1.751127      0.899033     -0.000000
  H      -0.328486     -1.021683      0.000000
  H      -0.401344      0.519780      0.898829
  H      -0.401344      0.519780     -0.898829
6
Coordinates from ORCA-job methanol_B3LYP_cc-pVDZ_OPT E -115.656512910690
  O       1.436190     -0.015599      0.000000
  C       0.020448      0.022879      0.000000
  H       1.752147      0.899149     -0.000000
  H      -0.328992     -1.021418      0.000000
  H      -0.401566      0.519469      0.897811
  H      -0.401566      0.519469     -0.897811
6
Coordinates from ORCA-job methanol_B3LYP_cc-pVDZ_OPT E -115.656512991570
  O       1.436025     -0.015222      0.000000
  C       0.020812      0.022312      0.000000
  H       1.752010      0.899483     -0.000000
  H      -0.329842     -1.021481     -0.000000
  H      -0.401172      0.519430      0.897498
  H      -0.401172      0.519430     -0.897498
6
Coordinates from ORCA-job methanol_B3LYP_cc-pVDZ_OPT E -115.656512933767
  O       1.436105     -0.015170      0.000000
  C       0.020888      0.022159      0.000000
  H       1.751868      0.899572     -0.000000
  H      -0.330073     -1.021526     -0.000000
  H      -0.401063      0.519458      0.897499
  H      -0.401063      0.519458     -0.897499
