9
Coordinates from ORCA-job dimethyl_ether_MP2_aug-cc-pVTZ_OPT E -154.737692609727
  C       1.432719     -0.002813     -0.005022
  O       0.023678      0.016780      0.028992
  C      -0.483222      0.674751      1.168339
  H       1.851529      1.011759     -0.026237
  H       1.731230     -0.526070     -0.912115
  H       1.850668     -0.530060      0.862927
  H      -0.160781      0.183276      2.095686
  H      -1.570163      0.639859      1.109429
  H      -0.162319      1.723938      1.205662
9
Coordinates from ORCA-job dimethyl_ether_MP2_aug-cc-pVTZ_OPT E -154.737858597389
  C       1.425353     -0.000311     -0.000501
  O       0.017025      0.012090      0.020889
  C      -0.475833      0.672025      1.163749
  H       1.834326      1.015810     -0.016886
  H       1.732300     -0.521160     -0.903285
  H       1.833801     -0.523559      0.870995
  H      -0.145950      0.177780      2.084040
  H      -1.560729      0.642286      1.113324
  H      -0.146954      1.716460      1.195335
9
Coordinates from ORCA-job dimethyl_ether_MP2_aug-cc-pVTZ_OPT E -154.737892572304
  C       1.422339      0.000586      0.001119
  O       0.012302      0.008745      0.015085
  C      -0.472986      0.670803      1.161745
  H       1.824327      1.019054     -0.011798
  H       1.736192     -0.519188     -0.899620
  H       1.824156     -0.520324      0.876421
  H      -0.137240      0.173802      2.077853
  H      -1.558022      0.645084      1.117784
  H      -0.137728      1.712858      1.189069
9
Coordinates from ORCA-job dimethyl_ether_MP2_aug-cc-pVTZ_OPT E -154.737896834591
  C       1.422632      0.000520      0.000976
  O       0.011302      0.008022      0.013840
  C      -0.473184      0.670864      1.161906
  H       1.822723      1.019817     -0.011279
  H       1.737885     -0.519160     -0.899442
  H       1.822674     -0.520007      0.877429
  H      -0.136010      0.172835      2.077025
  H      -1.558420      0.646039      1.119231
  H      -0.136262      1.712489      1.187974
9
Coordinates from ORCA-job dimethyl_ether_MP2_aug-cc-pVTZ_OPT E -154.737897419988
  C       1.423161      0.000448      0.000810
  O       0.011345      0.008039      0.013887
  C      -0.473514      0.671060      1.162274
  H       1.822902      1.019917     -0.011599
  H       1.738092     -0.519354     -0.899693
  H       1.822879     -0.520186      0.877408
  H      -0.136300      0.172673      2.077236
  H      -1.558785      0.646143      1.119301
  H      -0.136439      1.712681      1.188037
