3
Coordinates from ORCA-job hydrogen_sulfide_MP2_aug-cc-pVTZ_OPT E -398.908736642747
  S      -0.055870     -0.078797      0.000000
  H      -0.312146      1.241465      0.000000
  H       1.274687      0.119552      0.000000
3
Coordinates from ORCA-job hydrogen_sulfide_MP2_aug-cc-pVTZ_OPT E -398.908812244366
  S      -0.054716     -0.077327      0.000000
  H      -0.307533      1.237114      0.000000
  H       1.268918      0.122432      0.000000
3
Coordinates from ORCA-job hydrogen_sulfide_MP2_aug-cc-pVTZ_OPT E -398.908817827621
  S      -0.054310     -0.076811      0.000000
  H      -0.305842      1.235537      0.000000
  H       1.266822      0.123494      0.000000
3
Coordinates from ORCA-job hydrogen_sulfide_MP2_aug-cc-pVTZ_OPT E -398.908817802480
  S      -0.054329     -0.076835      0.000000
  H      -0.305859      1.235567      0.000000
  H       1.266858      0.123488      0.000000
