3
Coordinates from ORCA-job hydrogen_sulfide_B3LYP_cc-pVTZ_OPT E -399.362525616173
  S      -0.060104     -0.084760      0.000000
  H      -0.316149      1.248765      0.000000
  H       1.282923      0.118215      0.000000
3
Coordinates from ORCA-job hydrogen_sulfide_B3LYP_cc-pVTZ_OPT E -399.362667907185
  S      -0.057439     -0.081011      0.000000
  H      -0.312539      1.243402      0.000000
  H       1.276647      0.119829      0.000000
3
Coordinates from ORCA-job hydrogen_sulfide_B3LYP_cc-pVTZ_OPT E -399.362682414957
  S      -0.055984     -0.078960      0.000000
  H      -0.311742      1.241301      0.000000
  H       1.274396      0.119879      0.000000
3
Coordinates from ORCA-job hydrogen_sulfide_B3LYP_cc-pVTZ_OPT E -399.362682563180
  S      -0.055870     -0.078797      0.000000
  H      -0.312146      1.241465      0.000000
  H       1.274687      0.119552      0.000000
